
No compatibility mode selected!


Circuit: 

Doing analysis at TEMP = -25.000000 and TNOM = 27.000000


No. of Data Rows : 1501
Error: no such vector out_ext
  in term: vdb(out_ext)

Error: no such vector out_ext
  in term: vdb(out_ext)

Error: no such vector out_ext
  in term: (180*cph(out_ext)/pi)

Error(parse.c--checkvalid): out_ext: zero length vector.
Error: RHS "180*cph(out_ext)/pi" invalid
Error(parse.c--checkvalid): out_ext: zero length vector.
Error: RHS "vdb(out_ext)" invalid
Error: no such vector as v(out_ext).
unity_gain_freq_ext =  0.000000e+00
unity_gain_freq_ideal=  9.722516e+07
Error: no such vector as v(out_ext).
 meas ac dc_gain_ext find vdb(out_ext) at=10hz failed!

dc_gain_ideal       =  3.517795e+01
Error(parse.c--checkvalid): dc_gain_ext: zero length vector.
Error: RHS "dc_gain_ext" invalid
Error: no such vector as ph(v(out_ext).
 meas ac phase_at_unity_ext find ph(v(out_ext) at=0.000000e+00 failed!

Error: no such vector as ph(v(out)).
 meas ac phase_at_unity_ideal find ph(v(out)) at=9.722516e+07 failed!

Error(parse.c--checkvalid): phase_at_unity_ext: zero length vector.
Error: RHS "180 * phase_at_unity_ext / pi" invalid
Error(parse.c--checkvalid): phase_at_unity_ideal: zero length vector.
Error: RHS "180 * phase_at_unity_ideal / pi" invalid
Error(parse.c--checkvalid): phase_deg_at_unity_ext: zero length vector.
Error: RHS "180 + phase_deg_at_unity_ext" invalid
Error(parse.c--checkvalid): phase_deg_at_unity_ideal: zero length vector.
Error: RHS "180 + phase_deg_at_unity_ideal" invalid
Error(parse.c--checkvalid): phase_margin_ext: zero length vector.
Error(parse.c--checkvalid): phase_margin_ideal: zero length vector.

Error: measure  p1_val_ext  (WHEN) : no such vector as 'phase_vector_ext'
 meas ac p1_val_ext when phase_vector_ext=-45 cross=1 failed!


Error: measure  p2_val_ext  (WHEN) : no such vector as 'phase_vector_ext'
 meas ac p2_val_ext when phase_vector_ext=-135 cross=1 failed!


Error: measure  p1_val  (WHEN) : no such vector as 'phase_vector_ideal'
 meas ac p1_val when phase_vector_ideal=-45 cross=1 failed!


Error: measure  p2_val  (WHEN) : no such vector as 'phase_vector_ideal'
 meas ac p2_val when phase_vector_ideal=-135 cross=1 failed!

dc_gain_ideal       =  3.517795e+01
Doing analysis at TEMP = -25.000000 and TNOM = 27.000000


No. of Data Rows : 1
kgm1 = 1.521690e+01
kgm2 = 1.521690e+01
kgm3 = 4.983516e+00
kgm4 = 4.983516e+00
kgm5 = 1.868792e+01
kgm6 = 1.868792e+01
kgm7 = 5.403534e+00
kgm8 = 5.403534e+00
id1 = 2.918187e-05
id2 = 2.918187e-05
id3 = 2.918174e-05
id4 = 2.918174e-05
id5 = 2.049705e-04
id6 = 2.049705e-04
id7 = 2.049705e-04
id8 = 2.049705e-04
kcgg1 = 8.355529e-10
kcgg4 = 2.529746e-10
kcgg6 = 8.647287e-10
kcgg8 = 2.830194e-10
kco = 1.147748e-09
current_consumption = 2.341523e-04
vds4 = 1.419395e+00
vds8 = 1.082913e+00
Note: No ".plot", ".print", or ".fourier" lines; no simulations run
